Mass spectrum: Fluoranthene; GC-APCI-QTOF; MS2; CE: 20 eV; R=35000; [M]+
Name: Fluoranthene
Formula: C16H10
Exact mass: 202.0783
SMILES: C1=CC2=C(C=C1)C1=C3C2=CC=CC3=CC=C1
InChI: InChI=1S/C16H10/c1-2-8-13-12(7-1)14-9-3-5-11-6-4-10-15(13)16(11)14/h1-10H
Instrument: Bruker maXis Impact
Instrument type: GC-APCI-QTOF
Ms type: MS2
Ionization: APCI
Ion mode: POSITIVE
Fragmentation mode: CID
Collision energy: 20 eV
Resolution: 35000
Column name: Rxi-5Sil MS (30 m; 0.25 mm i.d.; 0.25 µm film thickness) Restek
Retention time: 18.925 min
Base peak: 202.0743
Precursor m/z: 202.0777
Precursor type: [M]+
m/z	relative intensity	assigned
202.0748	999	C16H10+
