Mass spectrum: PCB 28; GC-APCI-QTOF; MS2; CE: 30 eV; R=35000; [M+H]+
Name: PCB 28
Name: 2,4,4`-Trichlorobiphenyl
Name: 2,4-dichloro-1-(4-chlorophenyl)benzene
Formula: C12H7Cl3
Exact mass: 255.9613
SMILES: ClC1=CC=C(C=C1)C1=C(Cl)C=C(Cl)C=C1
InChI: InChI=1S/C12H7Cl3/c13-9-3-1-8(2-4-9)11-6-5-10(14)7-12(11)15/h1-7H
Instrument: Bruker maXis Impact
Instrument type: GC-APCI-QTOF
Ms type: MS2
Ionization: APCI
Ion mode: POSITIVE
Fragmentation mode: CID
Collision energy: 30 eV
Resolution: 35000
Column name: Rxi-5Sil MS (30 m; 0.25 mm i.d.; 0.25 µm film thickness) Restek
Retention time: 16.404 min
Base peak: 256.9655
Precursor m/z: 256.9686
Precursor type: [M+H]+
m/z	relative intensity	assigned
255.9582	999	C12H7Cl3+
