Mass spectrum: Phenanthrene; GC-APCI-QTOF; MS2; CE: 20 eV; R=35000; [M+H]+
Name: Phenanthrene
Formula: C14H10
Exact mass: 178.0783
SMILES: C1=CC2=C(C=C1)C1=C(C=CC=C1)C=C2
InChI: InChI=1S/C14H10/c1-3-7-13-11(5-1)9-10-12-6-2-4-8-14(12)13/h1-10H
Instrument: Bruker maXis Impact
Instrument type: GC-APCI-QTOF
Ms type: MS2
Ionization: APCI
Ion mode: POSITIVE
Fragmentation mode: CID
Collision energy: 20 eV
Resolution: 35000
Column name: Rxi-5Sil MS (30 m; 0.25 mm i.d.; 0.25 µm film thickness) Restek
Retention time: 15.628 min
Base peak: 179.081
Precursor m/z: 179.0855
Precursor type: [M+H]+
m/z	relative intensity	assigned
178.074	999	C14H10+
