Mass spectrum: Pyrene; GC-APCI-QTOF; MS2; CE: 40 eV; R=35000; [M]+
Name: Pyrene
Formula: C16H10
Exact mass: 202.0783
SMILES: C1=CC2=C3C(C=CC4=CC=CC(C=C2)=C34)=C1
InChI: InChI=1S/C16H10/c1-3-11-7-9-13-5-2-6-14-10-8-12(4-1)15(11)16(13)14/h1-10H
Instrument: Bruker maXis Impact
Instrument type: GC-APCI-QTOF
Ms type: MS2
Ionization: APCI
Ion mode: POSITIVE
Fragmentation mode: CID
Collision energy: 40 eV
Resolution: 35000
Column name: Rxi-5Sil MS (30 m; 0.25 mm i.d.; 0.25 µm film thickness) Restek
Retention time: 19.612 min
Base peak: 202.0744
Precursor m/z: 202.0777
Precursor type: [M]+
m/z	relative intensity	assigned
200.059	20	C16H8+
201.0665	50	C16H9+
202.0744	999	C16H10+
