Mass spectrum: Benzo(k)fluoranthene; GC-APCI-QTOF; MS2; CE: 30 eV; R=35000; [M]+
Name: Benzo(k)fluoranthene
Name: benzo[k]fluoranthene
Formula: C20H12
Exact mass: 252.0939
SMILES: C1=CC2=CC3=C(C=C2C=C1)C1=C2C3=CC=CC2=CC=C1
InChI: InChI=1S/C20H12/c1-2-6-15-12-19-17-10-4-8-13-7-3-9-16(20(13)17)18(19)11-14(15)5-1/h1-12H
Instrument: Bruker maXis Impact
Instrument type: GC-APCI-QTOF
Ms type: MS2
Ionization: APCI
Ion mode: POSITIVE
Fragmentation mode: CID
Collision energy: 30 eV
Resolution: 35000
Column name: Rxi-5Sil MS (30 m; 0.25 mm i.d.; 0.25 µm film thickness) Restek
Retention time: 27.242 min
Base peak: 252.0907
Precursor m/z: 252.0934
Precursor type: [M]+
m/z	relative intensity	assigned
55.0538	19	C4H7+
252.0929	999	C20H12+
