Mass spectrum: Acenapthene; GC-APCI-QTOF; MS2; CE: 10 eV; R=35000; [M]+
Name: Acenapthene
Name: Acenaphthene
Name: 1,2-dihydroacenaphthylene
Formula: C12H10
Exact mass: 154.0783
SMILES: C1CC2=C3C1=CC=CC3=CC=C2
InChI: InChI=1S/C12H10/c1-3-9-4-2-6-11-8-7-10(5-1)12(9)11/h1-6H,7-8H2
Instrument: Bruker maXis Impact
Instrument type: GC-APCI-QTOF
Ms type: MS2
Ionization: APCI
Ion mode: POSITIVE
Fragmentation mode: CID
Collision energy: 10 eV
Resolution: 35000
Column name: Rxi-5Sil MS (30 m; 0.25 mm i.d.; 0.25 µm film thickness) Restek
Retention time: 12.236 min
Base peak: 154.0744
Precursor m/z: 154.0777
Precursor type: [M]+
m/z	relative intensity	assigned
154.0743	999	C12H10+
