Mass spectrum: Fluorene; GC-APCI-QTOF; MS2; CE: 20 eV; R=35000; [M]+
Name: Fluorene
Name: 9H-fluorene
Formula: C13H10
Exact mass: 166.0783
SMILES: C1C2=C(C=CC=C2)C2=C1C=CC=C2
InChI: InChI=1S/C13H10/c1-3-7-12-10(5-1)9-11-6-2-4-8-13(11)12/h1-8H,9H2
Instrument: Bruker maXis Impact
Instrument type: GC-APCI-QTOF
Ms type: MS2
Ionization: APCI
Ion mode: POSITIVE
Fragmentation mode: CID
Collision energy: 20 eV
Resolution: 35000
Column name: Rxi-5Sil MS (30 m; 0.25 mm i.d.; 0.25 µm film thickness) Restek
Retention time: 13.233 min
Base peak: 166.0737
Precursor m/z: 166.0777
Precursor type: [M]+
m/z	relative intensity	assigned
141.0679	5	C11H9+
165.066	999	C13H9+
