Mass spectrum: PCB 180; GC-APCI-QTOF; MS2; CE: 40 eV; R=35000; [M]+
Name: PCB 180
Name: 2,2`,3,4,4`,5,5`-Heptachlorobiphenyl
Name: 1,2,3,4-tetrachloro-5-(2,4,5-trichlorophenyl)benzene
Formula: C12H3Cl7
Exact mass: 391.8054
SMILES: ClC1=CC(Cl)=C(C=C1Cl)C1=C(Cl)C(Cl)=C(Cl)C(Cl)=C1
InChI: InChI=1S/C12H3Cl7/c13-6-3-8(15)7(14)1-4(6)5-2-9(16)11(18)12(19)10(5)17/h1-3H
Instrument: Bruker maXis Impact
Instrument type: GC-APCI-QTOF
Ms type: MS2
Ionization: APCI
Ion mode: POSITIVE
Fragmentation mode: CID
Collision energy: 40 eV
Resolution: 35000
Column name: Rxi-5Sil MS (30 m; 0.25 mm i.d.; 0.25 µm film thickness) Restek
Retention time: 24.097 min
Base peak: 391.8035
Precursor m/z: 391.8049
Precursor type: [M]+
m/z	relative intensity	assigned
321.8652	999	C12H3Cl5+
356.8338	88	C12H3Cl6+
