Mass spectrum: Dieldrin; GC-APCI-QTOF; MS2; CE: 10 eV; R=35000; [M]+
Name: Dieldrin
Name: (1R,2S,3S,6R,7R,8S,9S,11R)-3,4,5,6,13,13-hexachloro-10-oxapentacyclo[6.3.1.13,6.02,7.09,11]tridec-4-ene
Formula: C12H8Cl6O
Exact mass: 377.8706
SMILES: ClC1=C(Cl)[C@]2(Cl)[C@@H]3[C@@H]4C[C@@H]([C@H]5O[C@@H]45)[C@@H]3[C@@]1(Cl)C2(Cl)Cl
InChI: InChI=1S/C12H8Cl6O/c13-8-9(14)11(16)5-3-1-2(6-7(3)19-6)4(5)10(8,15)12(11,17)18/h2-7H,1H2/t2-,3+,4+,5-,6-,7+,10+,11-
Instrument: Bruker maXis Impact
Instrument type: GC-APCI-QTOF
Ms type: MS2
Ionization: APCI
Ion mode: POSITIVE
Fragmentation mode: CID
Collision energy: 10 eV
Resolution: 35000
Column name: Rxi-5Sil MS (30 m; 0.25 mm i.d.; 0.25 µm film thickness) Restek
Retention time: 20.318 min
Base peak: 377.8678
Precursor m/z: 377.8701
Precursor type: [M]+
m/z	relative intensity	assigned
342.9024	647	C12H8Cl5O+
377.8697	999	C12H8Cl6O+
