Mass spectrum: Acenapthylene; GC-APCI-QTOF; MS2; CE: 30 eV; R=35000; [M]+
Name: Acenapthylene
Name: acenaphthylene
Formula: C12H8
Exact mass: 152.0626
SMILES: C1=CC2=C3C1=CC=CC3=CC=C2
InChI: InChI=1S/C12H8/c1-3-9-4-2-6-11-8-7-10(5-1)12(9)11/h1-8H
Instrument: Bruker maXis Impact
Instrument type: GC-APCI-QTOF
Ms type: MS2
Ionization: APCI
Ion mode: POSITIVE
Fragmentation mode: CID
Collision energy: 30 eV
Resolution: 35000
Column name: Rxi-5Sil MS (30 m; 0.25 mm i.d.; 0.25 µm film thickness) Restek
Retention time: 11.926 min
Base peak: 152.0589
Precursor m/z: 152.0621
Precursor type: [M]+
m/z	relative intensity	assigned
126.045	39	C10H6+
127.052	10	C10H7+
150.0438	21	C12H6+
151.0508	45	C12H7+
152.059	999	C12H8+
