Mass spectrum: Dichlorvos; GC-APCI-QTOF; MS2; CE: 20 eV; R=35000; [M+H]+
Name: Dichlorvos
Name: 2,2-dichloroethenyl dimethyl phosphate
Formula: C4H7Cl2O4P
Exact mass: 219.9459
SMILES: COP(=O)(OC)OC=C(Cl)Cl
InChI: InChI=1S/C4H7Cl2O4P/c1-8-11(7,9-2)10-3-4(5)6/h3H,1-2H3
Instrument: Bruker maXis Impact
Instrument type: GC-APCI-QTOF
Ms type: MS2
Ionization: APCI
Ion mode: POSITIVE
Fragmentation mode: CID
Collision energy: 20 eV
Resolution: 35000
Column name: Rxi-5Sil MS (30 m; 0.25 mm i.d.; 0.25 µm film thickness) Restek
Retention time: 9.798 min
Base peak: 220.9504
Precursor m/z: 220.9532
Precursor type: [M+H]+
m/z	relative intensity	assigned
75.9704	13	CHO2P+
78.9933	9	CH4O2P+
93.0109	8	C3H6ClO+
109.0043	13	C2H6O3P+
113.0012	5	C2H6ClO3+
127.0148	999	C2H8O4P+
144.9788	224	C2H7ClO3P+
184.9728	370	C4H7ClO4P+
220.9502	145	C4H8Cl2O4P+
